*Heading
** Job name: EbodyRbody Model name: Model-1
** Generated by: Abaqus/CAE 6.12-3
*Preprint, echo=NO, model=NO, history=NO, contact=NO
**
** PARTS
**
*Part, name=rect
*Node
1,    0.000000000000,     0.000000000000
2,    0.312500000000,     0.000000000000
3,    0.312500000000,     0.312500000000
4,    0.000000000000,     0.312500000000
5,    2.500000000000,     0.000000000000
6,    2.812500000000,     0.000000000000
7,    2.812500000000,     0.156250000000
8,    2.812500000000,     0.312500000000
9,    2.656250000000,     0.312500000000
10,    2.500000000000,     0.312500000000
11,    2.500000000000,     0.156250000000
12,    0.000000000000,     2.500000000000
13,    0.312500000000,     2.500000000000
14,    0.312500000000,     2.812500000000
15,    0.000000000000,     2.812500000000
16,    2.500000000000,     2.500000000000
17,    2.812500000000,     2.500000000000
18,    2.812500000000,     2.812500000000
19,    2.500000000000,     2.812500000000
20,    1.250000000000,     0.000000000000
** ... 676 like lines cut
*User element, nodes=4, type=U4, properties=3,coordinates=2, variables=7
1,2
*User element, nodes=5, type=U5, properties=3,coordinates=2, variables=7
1,2
*User element, nodes=6, type=U6, properties=3,coordinates=2, variables=7
1,2
*User element, nodes=7, type=U7, properties=3,coordinates=2, variables=7
1,2
*User element, nodes=8, type=U8, properties=3,coordinates=2, variables=7
1,2
*Element, type=U4,ELSET=four
1,1,2,3,4
2,12,13,14,15
3,16,17,18,19
4,20,21,22,23
5,24,25,26,27
6,28,29,30,31
7,37,38,39,40
8,41,42,43,44
9,45,46,47,48
10,49,50,51,52
11,53,54,55,56
12,57,58,59,60
13,61,62,63,64
14,65,66,67,68
15,69,70,71,72
16,73,74,75,76
17,77,78,79,80
18,81,82,83,84
19,85,86,87,88
20,89,90,91,92
** ... 527 like lines cut
*UEL Property, ELSET=four
1, 1.0000e+08,  0.35
*Element, type=U5,ELSET=five
548,32,33,34,35,36
549,153,154,155,156,157
550,173,174,175,176,177
551,182,183,184,185,186
552,218,217,224,225,226
553,22,116,247,121,118
554,245,105,110,311,312
555,217,313,311,314,224
556,118,121,124,322,119
557,355,356,357,358,359
558,170,386,173,177,171
559,403,404,405,305,95
560,405,406,407,408,305
561,156,428,429,355,352
562,272,36,412,252,279
563,279,252,255,446,280
564,280,446,449,153,294
565,492,493,494,495,496
566,372,529,530,531,388
567,341,568,569,488,485
** ... 11 like lines cut
*UEL Property, ELSET=five
1, 1.0000e+08,  0.35
*Element, type=U6,ELSET=six
579,105,106,107,108,109,110
580,111,112,113,114,115,116
581,264,265,266,267,170,169
582,322,327,328,329,138,137
583,138,332,37,40,264,139
584,337,338,339,340,341,342
585,368,369,370,371,372,373
586,33,248,251,409,410,34
587,155,427,347,350,428,156
588,184,430,187,190,403,185
589,150,415,418,546,547,151
590,152,151,548,549,420,419
591,570,571,492,496,572,573
592,162,674,519,522,368,365
*UEL Property, ELSET=six
1, 1.0000e+08,  0.35
*Element, type=U7,ELSET=seven
593,5,6,7,8,9,10,11
594,158,159,160,161,162,163,164
595,215,216,101,104,217,218,219
596,242,243,99,244,105,245,246
597,639,640,641,642,493,492,643
*UEL Property, ELSET=seven
1, 1.0000e+08,  0.35
*Element, type=U8,ELSET=eight
598,93,94,95,96,97,98,99,100,
599,286,287,288,289,260,38,37,290,
600,497,498,499,500,501,361,360,502,
601,515,536,178,181,391,537,538,539,
*UEL Property, ELSET=eight
1, 1.0000e+08,  0.35
*Nset, nset=Set-1
1,  696,1
*Elset, elset=Set-1, generate
1,601,1
** Section: Section-1
*Solid Section, elset=Set-1, material=Material-1
,
*End Part
**
*Part, name=rigid
*Node
1,    0.000000000000,     0.000000000000
2,    0.600000024000,     0.000000000000
3,    1.200000050000,     0.000000000000
4,    1.799999950000,     0.000000000000
5,    2.400000100000,     0.000000000000
6,    3.000000000000,     0.000000000000
7,    3.599999900000,     0.000000000000
8,    4.199999810000,     0.000000000000
9,    4.800000190000,     0.000000000000
10,    5.400000100000,     0.000000000000
11,    6.000000000000,     0.000000000000
12,    0.000000000000,     0.500000000000
13,    0.600000024000,     0.500000000000
14,    1.200000050000,     0.500000000000
15,    1.799999950000,     0.500000000000
16,    2.400000100000,     0.500000000000
17,    3.000000000000,     0.500000000000
18,    3.599999900000,     0.500000000000
19,    4.199999810000,     0.500000000000
20,    4.800000190000,     0.500000000000
** ... 13 like lines cut
*Element, type=CPE4
1,1,2,13,12
2,2,3,14,13
3,3,4,15,14
4,4,5,16,15
5,5,6,17,16
6,6,7,18,17
7,7,8,19,18
8,8,9,20,19
9,9,10,21,20
10,10,11,22,21
11,12,13,24,23
12,13,14,25,24
13,14,15,26,25
14,15,16,27,26
15,16,17,28,27
16,17,18,29,28
17,18,19,30,29
18,19,20,31,30
19,20,21,32,31
20,21,22,33,32
*Nset, nset=Set-1, generate
  1,  33,   1
*Elset, elset=Set-1, generate
 1,  20,   1
** Section: Section-2
*Solid Section, elset=Set-1, material=Material-2
,
*End Part
**
**
**ASSEMBLY
**
*Assembly, name=Assembly
**
*Instance, name=rect-1, part=rect
         5.6,           1.,           0.
*End Instance
**
*Instance, name=rigid-1, part=rigid
         5.6,           0.,           0.
*End Instance
*Nset, nset=s_Set-1, instance=rect-1
1, 2, 5, 6, 20, 21, 32, 33, 57, 58, 69, 70, 111, 112, ,
149, 150, 227, 248, 249, 270, 271, 316, 333, 334, 415, 416, 431, ,
432, 468, 469, 554, 555, 577, 578, 611, 612, 684, 
*Elset, elset=s_Set-1, instance=rect-1, generate
 1,  4,  1
*Nset, nset=Set-2, instance=rigid-1, generate
  1,  23,  11
*Elset, elset=Set-2, instance=rigid-1
  1, 11
*Nset, nset=Set-3, instance=rigid-1, generate
  1,  11,   1
*Elset, elset=Set-3, instance=rigid-1, generate
  1,  10,   1
*Nset, nset=Set-4, instance=rect-1
1, 4, 12, 15, 24, 27, 49, 52, 61, 64, 85, 88, 129, 132, 
207, 210, 677, 
*Elset, elset=Set-4, instance=rect-1, generate
  1,  13,   4
*Elset, elset=_m_Surf-1_S3, internal, instance=rigid-1, generate
 11,  20,   1
*Surface, type=ELEMENT, name=m_Surf-1
_m_Surf-1_S3, S3
*Elset, elset=_Surf-2_S3, internal, instance=rect-1, generate
 13,  16,   1
*Surface, type=NODE, name=s_Set-1_CNS_, internal
s_Set-1, 1.
*End Assembly
** MATERIALS
*Material, name=Material-1
*Elastic
 1e+08, 0.35
*Material, name=Material-2
*Elastic
1e+16,0.
*Surface Interaction, name=IntProp-1
1.,
*Friction, rough
*Contact Pair, interaction=IntProp-1, small sliding
s_Set-1_CNS_, m_Surf-1
*Step, name=Step-1
*Static
1., 1., 1e-05, 1.
*Boundary
Set-2, 1, 1
*Boundary
Set-3, 1, 1
Set-3, 2, 2
*Boundary
Set-4, 1, 1
*Cload
rect-1.671 , 2 ,-312500.000000 
rect-1.668 , 2 ,-625000.000000 
rect-1.315 , 2 ,-625000.000000 
rect-1.314 , 2 ,-625000.000000 
rect-1.224 , 2 ,-625000.000000 
rect-1.225 , 2 ,-468750.000000 
rect-1.681 , 2 ,-312500.000000 
rect-1.680 , 2 ,-312500.000000 
rect-1.679 , 2 ,-312500.000000 
rect-1.678 , 2 ,-312500.000000 
rect-1.676 , 2 ,-312500.000000 
rect-1.677 , 2 ,-156250.000000 
*Restart, write, frequency=0
*Output, field, variable=PRESELECT
*Output, history, variable=PRESELECT
*End Step
